*Heading
** Job name: ti64-ABQ-damage Model name: Model-1
** Generated by: Abaqus/CAE 2022
*Preprint, echo=NO, model=NO, history=NO, contact=NO
**
** PARTS
**
*Part, name=Part-1
*Node
      1,           1.,           1.,           1.
      2,           1.,           0.,           1.
      3,           1.,           1.,           0.
      4,           1.,           0.,           0.
      5,           0.,           1.,           1.
      6,           0.,           0.,           1.
      7,           0.,           1.,           0.
      8,           0.,           0.,           0.
*Element, type=C3D8R
1, 5, 6, 8, 7, 1, 2, 4, 3
*Nset, nset=cube, generate
 1,  8,  1
*Elset, elset=cube
 1,
** Section: cube
*Solid Section, elset=cube, controls=EC-1, material=ti64-ABQ-damage
,
*End Part
**  
**
** ASSEMBLY
**
*Assembly, name=Assembly
**  
*Instance, name=Part-1-1, part=Part-1
*End Instance
**  
*Nset, nset=Set-4, instance=Part-1-1, generate
 1,  4,  1
*Elset, elset=Set-4, instance=Part-1-1
 1,
*Nset, nset=floor, instance=Part-1-1, generate
 2,  8,  2
*Elset, elset=floor, instance=Part-1-1
 1,
*Nset, nset=xy-plane, instance=Part-1-1
 3, 4, 7, 8
*Elset, elset=xy-plane, instance=Part-1-1
 1,
*Nset, nset=yz-plane, instance=Part-1-1, generate
 5,  8,  1
*Elset, elset=yz-plane, instance=Part-1-1
 1,
*End Assembly
** 
** ELEMENT CONTROLS
** 
*Section Controls, name=EC-1, ELEMENT DELETION=YES
1., 1., 1.
*Amplitude, name=Amp-1
             0.,              0.,              1.,              1.
** 
** MATERIALS
** 
*Material, name=ti64-ABQ-damage
*Damage Initiation, criterion=JOHNSON COOK
 -0.09,  0.25,  -0.5, 0.014,  3.87, 1632.,   20.,    1.
*Damage Evolution, type=DISPLACEMENT
 0.05,
*Density
 4.43e-09,
*Elastic
114500., 0.342
*Plastic, hardening=JOHNSON COOK
1098.,1092., 0.93,  1.1,1632.,  20.
*Rate Dependent, type=JOHNSON COOK
 0.014,1.
** 
** BOUNDARY CONDITIONS
** 
** Name: BC-1 Type: Displacement/Rotation
*Boundary
floor, 2, 2
** Name: BC-2 Type: Displacement/Rotation
*Boundary
yz-plane, 1, 1
** Name: BC-3 Type: Displacement/Rotation
*Boundary
xy-plane, 3, 3
** ----------------------------------------------------------------
** 
** STEP: Step-1
** 
*Step, name=Step-1, nlgeom=YES
*Dynamic, Explicit
, 1.
*Bulk Viscosity
0.06, 1.2
** Mass Scaling: Semi-Automatic
**               Whole Model
*Fixed Mass Scaling, factor=10.
** 
** BOUNDARY CONDITIONS
** 
** Name: BC-4 Type: Displacement/Rotation
*Boundary, amplitude=Amp-1
Set-4, 1, 1, 0.4
** 
** OUTPUT REQUESTS
** 
*Restart, write, number interval=1, time marks=NO
** 
** FIELD OUTPUT: F-Output-1
** 
*Output, field, number interval=200
*Node Output
A, RF, U, V
*Element Output, directions=YES
DMICRT, EVF, LE, PE, PEEQ, PEEQVAVG, PEVAVG, S, SDV, STATUS, SVAVG
** 
** HISTORY OUTPUT: H-Output-1
** 
*Output, history, variable=PRESELECT
*End Step
